# generated using pymatgen
data_Sr2FeMoO6
_symmetry_space_group_name_H-M   'P 1'
_cell_length_a   5.68907200
_cell_length_b   5.68907200
_cell_length_c   7.91660000
_cell_angle_alpha   90.00000000
_cell_angle_beta   90.00000000
_cell_angle_gamma   90.00000000
_symmetry_Int_Tables_number   1
_chemical_formula_structural   Sr2FeMoO6
_chemical_formula_sum   'Sr4 Fe2 Mo2 O12'
_cell_volume   256.22503572
_cell_formula_units_Z   2
loop_
 _symmetry_equiv_pos_site_id
 _symmetry_equiv_pos_as_xyz
  1  'x, y, z'
loop_
 _atom_type_symbol
 _atom_type_oxidation_number
  Sr2+  2.0
  Fe3+  3.0
  Mo5+  5.0
  O2-  -2.0
loop_
 _atom_site_type_symbol
 _atom_site_label
 _atom_site_symmetry_multiplicity
 _atom_site_fract_x
 _atom_site_fract_y
 _atom_site_fract_z
 _atom_site_occupancy
  Sr2+  Sr0  1  0.00000000  0.50000000  0.25000000  1
  Sr2+  Sr1  1  0.50000000  0.00000000  0.25000000  1
  Sr2+  Sr2  1  0.50000000  0.00000000  0.75000000  1
  Sr2+  Sr3  1  0.00000000  0.50000000  0.75000000  1
  Fe3+  Fe4  1  0.00000000  0.00000000  0.00000000  1
  Fe3+  Fe5  1  0.50000000  0.50000000  0.50000000  1
  Mo5+  Mo6  1  0.00000000  0.00000000  0.50000000  1
  Mo5+  Mo7  1  0.50000000  0.50000000  0.00000000  1
  O2-  O8  1  0.00000000  0.00000000  0.74352700  1
  O2-  O9  1  0.00000000  0.00000000  0.25647300  1
  O2-  O10  1  0.22463100  0.27706000  0.50000000  1
  O2-  O11  1  0.27536900  0.22294000  0.00000000  1
  O2-  O12  1  0.77706000  0.27536900  0.00000000  1
  O2-  O13  1  0.72294000  0.22463100  0.50000000  1
  O2-  O14  1  0.50000000  0.50000000  0.24352700  1
  O2-  O15  1  0.50000000  0.50000000  0.75647300  1
  O2-  O16  1  0.72463100  0.77706000  0.00000000  1
  O2-  O17  1  0.77536900  0.72294000  0.50000000  1
  O2-  O18  1  0.27706000  0.77536900  0.50000000  1
  O2-  O19  1  0.22294000  0.72463100  0.00000000  1
